<?xml version="1.0" encoding="UTF-8"?>

<!-- generated on 2025-12-23 23:04:59.795458 by Eclipse SUMO randomTrips.py v1_25_0+0000-ac6c5a6752d
<configuration>
    <net-file value="network_3x3.net.xml"/>
    <route-file value="routes_3x3.rou.xml"/>
    <period value="0.6"/>
</configuration>
-->

<!-- generated on 2025-12-23T23:04:59.542614+00:00 by Eclipse SUMO duarouter 1.25.0
<duarouterConfiguration xmlns:xsi="http://www.w3.org/2001/XMLSchema-instance" xsi:noNamespaceSchemaLocation="http://sumo.dlr.de/xsd/duarouterConfiguration.xsd">

    <input>
        <net-file value="network_3x3.net.xml"/>
        <route-files value="trips.trips.xml"/>
    </input>

    <output>
        <output-file value="routes_3x3.rou.xml"/>
        <alternatives-output value="NUL"/>
    </output>

    <time>
        <begin value="0.0"/>
        <end value="3600.0"/>
    </time>

    <report>
        <no-warnings value="true"/>
        <ignore-errors value="true"/>
        <no-step-log value="true"/>
    </report>

</duarouterConfiguration>
-->

<routes xmlns:xsi="http://www.w3.org/2001/XMLSchema-instance" xsi:noNamespaceSchemaLocation="http://sumo.dlr.de/xsd/routes_file.xsd">
    <vehicle id="0" depart="0.00">
        <route edges="D0E0 E0E1 E1D1 D1C1 C1B1 B1A1 A1A0"/>
    </vehicle>
    <vehicle id="1" depart="0.60">
        <route edges="B2B3 B3B2 B2B1 B1B0"/>
    </vehicle>
    <vehicle id="2" depart="1.20">
        <route edges="D2D3 D3E3 E3E2 E2E1 E1D1 D1D2"/>
    </vehicle>
    <vehicle id="3" depart="1.80">
        <route edges="E1E2 E2D2 D2C2 C2B2 B2A2 A2A3"/>
    </vehicle>
    <vehicle id="4" depart="2.40">
        <route edges="C0D0 D0D1 D1C1 C1B1 B1A1 A1A0"/>
    </vehicle>
    <vehicle id="5" depart="3.00">
        <route edges="B1B0 B0C0 C0C1 C1C2 C2C3"/>
    </vehicle>
    <vehicle id="6" depart="3.60">
        <route edges="A1A0 A0B0 B0C0"/>
    </vehicle>
    <vehicle id="7" depart="4.20">
        <route edges="D0E0 E0E1 E1E2 E2E3 E3D3 D3C3 C3C2"/>
    </vehicle>
    <vehicle id="8" depart="4.80">
        <route edges="B1B0 B0B1 B1B2 B2B3 B3B4 B4C4 C4C3"/>
    </vehicle>
    <vehicle id="9" depart="5.40">
        <route edges="D4C4 C4B4 B4B3 B3B2 B2B1 B1B0 B0A0 A0A1"/>
    </vehicle>
    <vehicle id="10" depart="6.00">
        <route edges="D4C4 C4C3 C3C2 C2C1 C1D1 D1E1"/>
    </vehicle>
    <vehicle id="11" depart="6.60">
        <route edges="B3C3 C3B3 B3A3 A3A4 A4B4"/>
    </vehicle>
    <vehicle id="12" depart="7.20">
        <route edges="E3E2 E2D2 D2C2 C2B2 B2B3 B3B4"/>
    </vehicle>
    <vehicle id="13" depart="7.80">
        <route edges="A2B2"/>
    </vehicle>
    <vehicle id="14" depart="8.40">
        <route edges="E0D0 D0C0 C0C1 C1C2 C2C3 C3C4 C4D4"/>
    </vehicle>
    <vehicle id="15" depart="9.00">
        <route edges="D4C4 C4C3 C3C2 C2D2 D2D3"/>
    </vehicle>
    <vehicle id="16" depart="9.60">
        <route edges="C3B3 B3C3 C3D3 D3E3 E3E4"/>
    </vehicle>
    <vehicle id="17" depart="10.20">
        <route edges="B4C4 C4C3 C3C4"/>
    </vehicle>
    <vehicle id="18" depart="10.80">
        <route edges="D4E4 E4E3 E3E2 E2E1 E1E0 E0D0 D0C0"/>
    </vehicle>
    <vehicle id="19" depart="11.40">
        <route edges="E0E1 E1E2 E2E3 E3E4 E4D4 D4C4 C4B4"/>
    </vehicle>
    <vehicle id="20" depart="12.00">
        <route edges="D2C2 C2C1 C1B1 B1A1 A1A2"/>
    </vehicle>
    <vehicle id="21" depart="12.60">
        <route edges="B1B2 B2C2"/>
    </vehicle>
    <vehicle id="22" depart="13.20">
        <route edges="A2A3 A3B3 B3B2 B2B1 B1B2"/>
    </vehicle>
    <vehicle id="23" depart="13.80">
        <route edges="A3A2 A2B2 B2B3"/>
    </vehicle>
    <vehicle id="24" depart="14.40">
        <route edges="D0D1 D1D2 D2D3 D3D4 D4C4 C4B4 B4B3"/>
    </vehicle>
    <vehicle id="25" depart="15.00">
        <route edges="B4B3 B3B2 B2B1 B1A1"/>
    </vehicle>
    <vehicle id="26" depart="15.60">
        <route edges="B2B1 B1C1 C1D1 D1E1 E1E2 E2E3"/>
    </vehicle>
    <vehicle id="27" depart="16.20">
        <route edges="D0E0 E0E1 E1E2 E2E3 E3D3 D3C3 C3C4 C4D4"/>
    </vehicle>
    <vehicle id="28" depart="16.80">
        <route edges="B0A0 A0A1 A1A2 A2B2 B2C2 C2D2 D2D3"/>
    </vehicle>
    <vehicle id="29" depart="17.40">
        <route edges="B0A0 A0A1 A1A2 A2A3 A3A4 A4B4 B4C4"/>
    </vehicle>
    <vehicle id="30" depart="18.00">
        <route edges="E4E3 E3E2 E2D2 D2D1 D1D0 D0E0"/>
    </vehicle>
    <vehicle id="31" depart="18.60">
        <route edges="C3C4 C4C3 C3C2 C2C1 C1D1 D1D2"/>
    </vehicle>
    <vehicle id="32" depart="19.20">
        <route edges="E0D0 D0D1 D1D2 D2D3 D3D4"/>
    </vehicle>
    <vehicle id="33" depart="19.80">
        <route edges="B1B2 B2A2 A2A1 A1A0"/>
    </vehicle>
    <vehicle id="34" depart="20.40">
        <route edges="B3B2 B2B1"/>
    </vehicle>
    <vehicle id="35" depart="21.00">
        <route edges="B1A1 A1A2 A2A3 A3B3 B3C3 C3D3 D3E3 E3D3"/>
    </vehicle>
    <vehicle id="36" depart="21.60">
        <route edges="E1E0 E0D0 D0C0 C0C1 C1C2 C2C3 C3B3 B3B2"/>
    </vehicle>
    <vehicle id="37" depart="22.20">
        <route edges="D1C1 C1C0 C0B0"/>
    </vehicle>
    <vehicle id="38" depart="22.80">
        <route edges="E2E1 E1D1 D1C1 C1C2"/>
    </vehicle>
    <vehicle id="39" depart="23.40">
        <route edges="B2B1 B1C1"/>
    </vehicle>
    <vehicle id="40" depart="24.00">
        <route edges="C3C4 C4B4 B4B3 B3B2 B2B1"/>
    </vehicle>
    <vehicle id="41" depart="24.60">
        <route edges="C4B4 B4B3 B3B2 B2B1 B1C1 C1D1 D1E1 E1E2"/>
    </vehicle>
    <vehicle id="42" depart="25.20">
        <route edges="C0B0 B0B1 B1B0"/>
    </vehicle>
    <vehicle id="43" depart="25.80">
        <route edges="E4E3 E3E2 E2D2 D2C2 C2C3"/>
    </vehicle>
    <vehicle id="44" depart="26.40">
        <route edges="A2B2 B2B1 B1A1 A1A2"/>
    </vehicle>
    <vehicle id="45" depart="27.00">
        <route edges="A3A2 A2A1 A1A0 A0B0 B0C0 C0D0 D0D1"/>
    </vehicle>
    <vehicle id="46" depart="27.60">
        <route edges="D3E3 E3E2 E2E1 E1D1 D1C1 C1C0 C0D0"/>
    </vehicle>
    <vehicle id="47" depart="28.20">
        <route edges="A2A1 A1B1 B1B2 B2B3 B3B4 B4C4"/>
    </vehicle>
    <vehicle id="48" depart="28.80">
        <route edges="E4E3 E3D3 D3C3 C3B3"/>
    </vehicle>
    <vehicle id="49" depart="29.40">
        <route edges="E3E4 E4D4 D4D3 D3D2 D2D1 D1D0 D0E0 E0E1"/>
    </vehicle>
    <vehicle id="50" depart="30.00">
        <route edges="A0A1 A1A2 A2B2 B2C2 C2D2 D2D1"/>
    </vehicle>
    <vehicle id="51" depart="30.60">
        <route edges="D1D2 D2D3 D3C3 C3B3"/>
    </vehicle>
    <vehicle id="52" depart="31.20">
        <route edges="B2B1 B1B0 B0C0 C0D0 D0E0"/>
    </vehicle>
    <vehicle id="53" depart="31.80">
        <route edges="A3A2 A2B2 B2C2 C2C1 C1B1"/>
    </vehicle>
    <vehicle id="54" depart="32.40">
        <route edges="C1C2 C2C3 C3D3 D3E3 E3E2"/>
    </vehicle>
    <vehicle id="55" depart="33.00">
        <route edges="E1E0 E0D0 D0C0 C0C1 C1C2 C2B2 B2B1"/>
    </vehicle>
    <vehicle id="56" depart="33.60">
        <route edges="C2C3 C3B3 B3B2 B2B1 B1B0 B0B1"/>
    </vehicle>
    <vehicle id="57" depart="34.20">
        <route edges="E2E1 E1D1"/>
    </vehicle>
    <vehicle id="58" depart="34.80">
        <route edges="B2C2 C2C1 C1C0 C0D0 D0E0"/>
    </vehicle>
    <vehicle id="59" depart="35.40">
        <route edges="C4D4 D4D3 D3C3 C3B3 B3A3 A3A4 A4B4"/>
    </vehicle>
    <vehicle id="60" depart="36.00">
        <route edges="D3D2 D2C2 C2C3 C3C2"/>
    </vehicle>
    <vehicle id="61" depart="36.60">
        <route edges="D3D4 D4C4 C4C3 C3B3"/>
    </vehicle>
    <vehicle id="62" depart="37.20">
        <route edges="A0A1 A1A2 A2A3 A3B3 B3B2"/>
    </vehicle>
    <vehicle id="63" depart="37.80">
        <route edges="A0B0 B0C0 C0D0 D0E0 E0E1 E1E2 E2E3"/>
    </vehicle>
    <vehicle id="64" depart="38.40">
        <route edges="E1E0 E0D0 D0D1 D1D2 D2D3 D3D4 D4E4"/>
    </vehicle>
    <vehicle id="65" depart="39.00">
        <route edges="B3A3 A3A2 A2A1 A1B1"/>
    </vehicle>
    <vehicle id="66" depart="39.60">
        <route edges="E1E0 E0D0 D0D1 D1D2 D2D3 D3E3 E3D3"/>
    </vehicle>
    <vehicle id="67" depart="40.20">
        <route edges="A2A3 A3B3 B3C3 C3C2 C2B2"/>
    </vehicle>
    <vehicle id="68" depart="40.80">
        <route edges="A2A1 A1B1 B1C1 C1D1 D1D2 D2D3 D3C3"/>
    </vehicle>
    <vehicle id="69" depart="41.40">
        <route edges="D3D2 D2C2 C2B2 B2A2 A2A3 A3B3"/>
    </vehicle>
    <vehicle id="70" depart="42.00">
        <route edges="C2B2 B2B3 B3C3 C3C2"/>
    </vehicle>
    <vehicle id="71" depart="42.60">
        <route edges="B2B1 B1C1 C1D1 D1E1 E1D1"/>
    </vehicle>
    <vehicle id="72" depart="43.20">
        <route edges="C0D0 D0D1 D1C1 C1B1 B1A1"/>
    </vehicle>
    <vehicle id="73" depart="43.80">
        <route edges="C3C2 C2D2 D2D3"/>
    </vehicle>
    <vehicle id="74" depart="44.40">
        <route edges="B1A1 A1A2 A2A3 A3B3 B3A3"/>
    </vehicle>
    <vehicle id="75" depart="45.00">
        <route edges="E4E3 E3E2 E2D2 D2D1 D1D0 D0E0"/>
    </vehicle>
    <vehicle id="76" depart="45.60">
        <route edges="C1C0 C0C1 C1C2 C2D2"/>
    </vehicle>
    <vehicle id="77" depart="46.20">
        <route edges="A3A4 A4B4 B4B3 B3B2 B2B1 B1B0"/>
    </vehicle>
    <vehicle id="78" depart="46.80">
        <route edges="B3C3 C3C4 C4C3"/>
    </vehicle>
    <vehicle id="79" depart="47.40">
        <route edges="B1B2 B2B1 B1B0"/>
    </vehicle>
    <vehicle id="80" depart="48.00">
        <route edges="A2A1 A1A0 A0B0 B0C0 C0D0 D0D1"/>
    </vehicle>
    <vehicle id="81" depart="48.60">
        <route edges="B1B2 B2C2 C2D2 D2E2 E2D2"/>
    </vehicle>
    <vehicle id="82" depart="49.20">
        <route edges="E0E1 E1E2 E2D2 D2C2 C2B2 B2A2 A2A1"/>
    </vehicle>
    <vehicle id="83" depart="49.80">
        <route edges="B1C1 C1D1 D1D0"/>
    </vehicle>
    <vehicle id="84" depart="50.40">
        <route edges="B1B0 B0A0 A0A1 A1A2 A2A3 A3B3"/>
    </vehicle>
    <vehicle id="85" depart="51.00">
        <route edges="E2E3 E3D3 D3C3 C3D3"/>
    </vehicle>
    <vehicle id="86" depart="51.60">
        <route edges="C1D1 D1D2 D2D3 D3D4"/>
    </vehicle>
    <vehicle id="87" depart="52.20">
        <route edges="D4C4 C4B4 B4B3 B3B2 B2B1 B1B0 B0C0"/>
    </vehicle>
    <vehicle id="88" depart="52.80">
        <route edges="A2B2 B2C2 C2C1 C1B1"/>
    </vehicle>
    <vehicle id="89" depart="53.40">
        <route edges="C0D0 D0C0 C0C1 C1D1"/>
    </vehicle>
    <vehicle id="90" depart="54.00">
        <route edges="D2D3 D3D2 D2D1 D1D0"/>
    </vehicle>
    <vehicle id="91" depart="54.60">
        <route edges="E4D4 D4C4 C4B4 B4A4 A4A3 A3A2 A2B2"/>
    </vehicle>
    <vehicle id="92" depart="55.20">
        <route edges="C0C1 C1C2 C2B2 B2B3 B3C3"/>
    </vehicle>
    <vehicle id="93" depart="55.80">
        <route edges="E0E1 E1D1 D1C1 C1B1 B1C1"/>
    </vehicle>
    <vehicle id="94" depart="56.40">
        <route edges="B0C0 C0C1 C1C0"/>
    </vehicle>
    <vehicle id="95" depart="57.00">
        <route edges="C0D0 D0C0 C0B0 B0B1 B1B2 B2B3"/>
    </vehicle>
    <vehicle id="96" depart="57.60">
        <route edges="B1C1 C1C2 C2D2 D2E2 E2E1"/>
    </vehicle>
    <vehicle id="97" depart="58.20">
        <route edges="C1C0 C0D0 D0E0 E0E1"/>
    </vehicle>
    <vehicle id="98" depart="58.80">
        <route edges="C3C4 C4B4 B4A4 A4A3 A3A2 A2A1 A1B1"/>
    </vehicle>
    <vehicle id="99" depart="59.40">
        <route edges="E4E3 E3D3 D3D4 D4E4"/>
    </vehicle>
    <vehicle id="100" depart="60.00">
        <route edges="E3E4 E4D4 D4D3 D3D2 D2E2 E2E3"/>
    </vehicle>
    <vehicle id="101" depart="60.60">
        <route edges="E0D0 D0C0 C0B0 B0A0"/>
    </vehicle>
    <vehicle id="102" depart="61.20">
        <route edges="C2B2 B2B1 B1B0"/>
    </vehicle>
    <vehicle id="103" depart="61.80">
        <route edges="C0C1 C1B1 B1A1 A1B1"/>
    </vehicle>
    <vehicle id="104" depart="62.40">
        <route edges="B4C4 C4D4 D4D3 D3E3 E3E4 E4D4"/>
    </vehicle>
    <vehicle id="105" depart="63.00">
        <route edges="B2B1 B1C1 C1D1 D1D2 D2D3 D3D4"/>
    </vehicle>
    <vehicle id="106" depart="63.60">
        <route edges="C1C2 C2C1 C1C0 C0D0"/>
    </vehicle>
    <vehicle id="107" depart="64.20">
        <route edges="E3E2 E2D2 D2D3 D3D4 D4E4 E4E3"/>
    </vehicle>
    <vehicle id="108" depart="64.80">
        <route edges="C3C4 C4D4 D4D3 D3D2 D2D1"/>
    </vehicle>
    <vehicle id="109" depart="65.40">
        <route edges="A4B4 B4B3 B3B2 B2C2"/>
    </vehicle>
    <vehicle id="110" depart="66.00">
        <route edges="E3E4 E4D4 D4C4 C4B4"/>
    </vehicle>
    <vehicle id="111" depart="66.60">
        <route edges="C3C2 C2D2 D2E2"/>
    </vehicle>
    <vehicle id="112" depart="67.20">
        <route edges="A1B1 B1C1 C1C2 C2C3 C3C4 C4B4"/>
    </vehicle>
    <vehicle id="113" depart="67.80">
        <route edges="C2C3 C3D3 D3D2 D2D1 D1D0 D0E0 E0E1"/>
    </vehicle>
    <vehicle id="114" depart="68.40">
        <route edges="A4B4 B4C4 C4D4 D4E4 E4E3 E3E2"/>
    </vehicle>
    <vehicle id="115" depart="69.00">
        <route edges="A2A3 A3B3 B3B2 B2B1 B1B0 B0B1"/>
    </vehicle>
    <vehicle id="116" depart="69.60">
        <route edges="C4C3 C3C2 C2C1 C1D1 D1D2"/>
    </vehicle>
    <vehicle id="117" depart="70.20">
        <route edges="B1B2 B2B3 B3A3 A3A4"/>
    </vehicle>
    <vehicle id="118" depart="70.80">
        <route edges="E1E2 E2D2 D2C2 C2B2 B2B1 B1C1"/>
    </vehicle>
    <vehicle id="119" depart="71.40">
        <route edges="C4C3 C3C2 C2C1 C1D1 D1D0 D0C0"/>
    </vehicle>
    <vehicle id="120" depart="72.00">
        <route edges="C0D0 D0D1 D1D2 D2D3 D3D4 D4C4 C4B4"/>
    </vehicle>
    <vehicle id="121" depart="72.60">
        <route edges="C2D2 D2E2 E2E3"/>
    </vehicle>
    <vehicle id="122" depart="73.20">
        <route edges="B1A1 A1A2 A2B2 B2C2 C2D2 D2D1"/>
    </vehicle>
    <vehicle id="123" depart="73.80">
        <route edges="B1C1 C1C0 C0B0"/>
    </vehicle>
    <vehicle id="124" depart="74.40">
        <route edges="D1D0 D0C0 C0B0 B0B1 B1B2 B2C2"/>
    </vehicle>
    <vehicle id="125" depart="75.00">
        <route edges="B3B2 B2C2 C2D2 D2D3 D3C3"/>
    </vehicle>
    <vehicle id="126" depart="75.60">
        <route edges="A2A1 A1B1 B1C1 C1C2"/>
    </vehicle>
    <vehicle id="127" depart="76.20">
        <route edges="E4E3"/>
    </vehicle>
    <vehicle id="128" depart="76.80">
        <route edges="A2A1 A1B1 B1B0"/>
    </vehicle>
    <vehicle id="129" depart="77.40">
        <route edges="B2B1 B1C1 C1D1 D1E1 E1E2 E2E3"/>
    </vehicle>
    <vehicle id="130" depart="78.00">
        <route edges="E1E0"/>
    </vehicle>
    <vehicle id="131" depart="78.60">
        <route edges="B4B3 B3A3 A3A4 A4B4"/>
    </vehicle>
    <vehicle id="132" depart="79.20">
        <route edges="D4E4 E4E3 E3E2 E2D2 D2C2"/>
    </vehicle>
    <vehicle id="133" depart="79.80">
        <route edges="C4D4 D4D3 D3E3 E3E4 E4D4"/>
    </vehicle>
    <vehicle id="134" depart="80.40">
        <route edges="D1C1 C1C0 C0B0 B0A0 A0A1"/>
    </vehicle>
    <vehicle id="135" depart="81.00">
        <route edges="D4D3 D3D2 D2C2 C2B2 B2C2"/>
    </vehicle>
    <vehicle id="136" depart="81.60">
        <route edges="D1D0 D0E0 E0E1 E1E2 E2E3 E3D3"/>
    </vehicle>
    <vehicle id="137" depart="82.20">
        <route edges="A3B3 B3A3 A3A4"/>
    </vehicle>
    <vehicle id="138" depart="82.80">
        <route edges="A3A2 A2B2 B2C2 C2C3 C3C4"/>
    </vehicle>
    <vehicle id="139" depart="83.40">
        <route edges="B2B1 B1C1 C1C2 C2C3 C3C4 C4D4"/>
    </vehicle>
    <vehicle id="140" depart="84.00">
        <route edges="D2D1 D1C1 C1B1 B1A1"/>
    </vehicle>
    <vehicle id="141" depart="84.60">
        <route edges="D0D1 D1D2 D2C2 C2B2 B2B1"/>
    </vehicle>
    <vehicle id="142" depart="85.20">
        <route edges="C2C1 C1D1 D1E1 E1E2 E2D2"/>
    </vehicle>
    <vehicle id="143" depart="85.80">
        <route edges="E0D0 D0C0 C0B0 B0A0 A0A1 A1A2 A2B2"/>
    </vehicle>
    <vehicle id="144" depart="86.40">
        <route edges="C0D0 D0C0 C0B0 B0B1 B1B2 B2B3"/>
    </vehicle>
    <vehicle id="145" depart="87.00">
        <route edges="A0A1 A1A2 A2A3 A3B3 B3C3 C3D3 D3D2"/>
    </vehicle>
    <vehicle id="146" depart="87.60">
        <route edges="D0D1 D1D2 D2C2 C2B2 B2A2"/>
    </vehicle>
    <vehicle id="147" depart="88.20">
        <route edges="D2E2 E2D2 D2C2 C2C3 C3C4"/>
    </vehicle>
    <vehicle id="148" depart="88.80">
        <route edges="C1B1 B1B0 B0A0 A0A1"/>
    </vehicle>
    <vehicle id="149" depart="89.40">
        <route edges="A2A3 A3B3 B3C3 C3D3 D3E3 E3E2 E2E1 E1E0"/>
    </vehicle>
    <vehicle id="150" depart="90.00">
        <route edges="E2D2 D2D3 D3C3 C3C2"/>
    </vehicle>
    <vehicle id="151" depart="90.60">
        <route edges="D4E4 E4E3 E3D3 D3D4 D4C4 C4B4"/>
    </vehicle>
    <vehicle id="152" depart="91.20">
        <route edges="A4A3 A3B3"/>
    </vehicle>
    <vehicle id="153" depart="91.80">
        <route edges="B3A3 A3A2 A2A1 A1B1 B1C1 C1D1 D1E1 E1E2"/>
    </vehicle>
    <vehicle id="154" depart="92.40">
        <route edges="D3E3 E3E2 E2E1 E1D1 D1D0 D0E0 E0E1"/>
    </vehicle>
    <vehicle id="155" depart="93.00">
        <route edges="E1E2 E2D2 D2D1 D1C1 C1B1 B1A1"/>
    </vehicle>
    <vehicle id="156" depart="93.60">
        <route edges="B1C1 C1C2 C2C3 C3B3 B3A3 A3A2"/>
    </vehicle>
    <vehicle id="157" depart="94.20">
        <route edges="D3D4 D4E4 E4E3 E3E2 E2E1 E1E0"/>
    </vehicle>
    <vehicle id="158" depart="94.80">
        <route edges="C0C1 C1D1 D1D0 D0C0"/>
    </vehicle>
    <vehicle id="159" depart="95.40">
        <route edges="A4B4 B4C4 C4D4 D4D3 D3D2 D2E2 E2E3"/>
    </vehicle>
    <vehicle id="160" depart="96.00">
        <route edges="E1D1 D1D2 D2D3 D3E3 E3E4 E4D4"/>
    </vehicle>
    <vehicle id="161" depart="96.60">
        <route edges="D4C4 C4D4 D4E4 E4E3 E3E2 E2E1 E1E0"/>
    </vehicle>
    <vehicle id="162" depart="97.20">
        <route edges="A0B0 B0C0 C0D0 D0D1 D1D2 D2D3"/>
    </vehicle>
    <vehicle id="163" depart="97.80">
        <route edges="B3B4 B4C4 C4D4 D4D3 D3D2 D2E2 E2E3"/>
    </vehicle>
    <vehicle id="164" depart="98.40">
        <route edges="D4C4 C4D4 D4E4 E4E3 E3E2 E2E1 E1D1"/>
    </vehicle>
    <vehicle id="165" depart="99.00">
        <route edges="D4C4 C4B4 B4B3 B3B2 B2B1"/>
    </vehicle>
    <vehicle id="166" depart="99.60">
        <route edges="D3D4 D4C4 C4B4 B4A4 A4A3 A3A2"/>
    </vehicle>
    <vehicle id="167" depart="100.20">
        <route edges="E1D1 D1D0 D0E0 E0E1"/>
    </vehicle>
    <vehicle id="168" depart="100.80">
        <route edges="B1B0 B0B1 B1B2 B2B3 B3B4 B4C4 C4D4 D4D3"/>
    </vehicle>
    <vehicle id="169" depart="101.40">
        <route edges="C1C2 C2C3 C3B3 B3A3"/>
    </vehicle>
    <vehicle id="170" depart="102.00">
        <route edges="D3E3 E3E2 E2E1 E1D1 D1C1 C1B1 B1B2"/>
    </vehicle>
    <vehicle id="171" depart="102.60">
        <route edges="A0B0 B0C0"/>
    </vehicle>
    <vehicle id="172" depart="103.20">
        <route edges="B3B4 B4C4 C4D4 D4E4 E4E3 E3E2 E2E1 E1D1"/>
    </vehicle>
    <vehicle id="173" depart="103.80">
        <route edges="E3E4 E4D4 D4C4 C4C3 C3C2 C2B2 B2B3"/>
    </vehicle>
    <vehicle id="174" depart="104.40">
        <route edges="D0E0 E0E1 E1D1 D1D0 D0C0 C0B0"/>
    </vehicle>
    <vehicle id="175" depart="105.00">
        <route edges="E4D4 D4C4 C4C3 C3B3"/>
    </vehicle>
    <vehicle id="176" depart="105.60">
        <route edges="E3D3 D3C3 C3B3 B3A3 A3A4"/>
    </vehicle>
    <vehicle id="177" depart="106.20">
        <route edges="E3E4 E4D4 D4C4 C4C3 C3C2 C2C1 C1C0 C0B0 B0B1"/>
    </vehicle>
    <vehicle id="178" depart="106.80">
        <route edges="E3E4 E4D4 D4C4 C4B4 B4B3 B3B2 B2B1"/>
    </vehicle>
    <vehicle id="179" depart="107.40">
        <route edges="A3A2 A2B2 B2C2 C2C1 C1B1"/>
    </vehicle>
    <vehicle id="180" depart="108.00">
        <route edges="D2D3 D3C3 C3B3 B3B2"/>
    </vehicle>
    <vehicle id="181" depart="108.60">
        <route edges="C4D4 D4D3 D3D2 D2C2 C2C3"/>
    </vehicle>
    <vehicle id="182" depart="109.20">
        <route edges="B4C4 C4B4"/>
    </vehicle>
    <vehicle id="183" depart="109.80">
        <route edges="B2A2 A2B2 B2C2 C2D2 D2C2"/>
    </vehicle>
    <vehicle id="184" depart="110.40">
        <route edges="A0A1 A1A2 A2B2 B2C2 C2D2 D2E2 E2E3"/>
    </vehicle>
    <vehicle id="185" depart="111.00">
        <route edges="C3C2 C2D2 D2D1"/>
    </vehicle>
    <vehicle id="186" depart="111.60">
        <route edges="D2E2 E2E1 E1D1 D1D0"/>
    </vehicle>
    <vehicle id="187" depart="112.20">
        <route edges="B4B3 B3A3 A3A2 A2A1"/>
    </vehicle>
    <vehicle id="188" depart="112.80">
        <route edges="D1D0 D0C0 C0B0 B0B1 B1B2 B2B3 B3B4"/>
    </vehicle>
    <vehicle id="189" depart="113.40">
        <route edges="B3B2 B2B1 B1C1 C1D1 D1E1 E1E0 E0D0"/>
    </vehicle>
    <vehicle id="190" depart="114.00">
        <route edges="D2D1 D1C1 C1B1 B1B2 B2B3 B3A3"/>
    </vehicle>
    <vehicle id="191" depart="114.60">
        <route edges="B3A3 A3A2 A2A1 A1A0 A0B0 B0C0 C0C1"/>
    </vehicle>
    <vehicle id="192" depart="115.20">
        <route edges="C0C1 C1B1 B1B2 B2C2"/>
    </vehicle>
    <vehicle id="193" depart="115.80">
        <route edges="A3B3 B3B2 B2B1 B1B0 B0C0 C0D0"/>
    </vehicle>
    <vehicle id="194" depart="116.40">
        <route edges="E3D3 D3D2 D2D1 D1D2"/>
    </vehicle>
    <vehicle id="195" depart="117.00">
        <route edges="E2D2 D2D1 D1D0 D0C0"/>
    </vehicle>
    <vehicle id="196" depart="117.60">
        <route edges="B3A3 A3B3 B3C3 C3C2"/>
    </vehicle>
    <vehicle id="197" depart="118.20">
        <route edges="A0A1 A1A2 A2B2 B2B3"/>
    </vehicle>
    <vehicle id="198" depart="118.80">
        <route edges="C1B1 B1B2 B2B3 B3C3 C3C4 C4B4"/>
    </vehicle>
    <vehicle id="199" depart="119.40">
        <route edges="D1C1 C1D1"/>
    </vehicle>
    <vehicle id="200" depart="120.00">
        <route edges="C1C0 C0C1 C1B1 B1B0"/>
    </vehicle>
    <vehicle id="201" depart="120.60">
        <route edges="C1D1 D1E1 E1E2 E2D2"/>
    </vehicle>
    <vehicle id="202" depart="121.20">
        <route edges="D3E3 E3E2 E2E1 E1E0 E0D0 D0C0 C0B0 B0A0"/>
    </vehicle>
    <vehicle id="203" depart="121.80">
        <route edges="A2A3 A3B3 B3C3 C3C2 C2D2"/>
    </vehicle>
    <vehicle id="204" depart="122.40">
        <route edges="D0D1 D1D2 D2D3 D3C3 C3B3 B3B4"/>
    </vehicle>
    <vehicle id="205" depart="123.00">
        <route edges="D4D3 D3C3"/>
    </vehicle>
    <vehicle id="206" depart="123.60">
        <route edges="D1D0 D0C0 C0C1 C1B1 B1B0"/>
    </vehicle>
    <vehicle id="207" depart="124.20">
        <route edges="B0C0 C0C1 C1B1 B1A1 A1A0 A0B0"/>
    </vehicle>
    <vehicle id="208" depart="124.80">
        <route edges="B1C1 C1C2 C2B2"/>
    </vehicle>
    <vehicle id="209" depart="125.40">
        <route edges="E0D0 D0C0 C0B0 B0B1 B1B2 B2A2 A2A1"/>
    </vehicle>
    <vehicle id="210" depart="126.00">
        <route edges="C0D0 D0D1"/>
    </vehicle>
    <vehicle id="211" depart="126.60">
        <route edges="B0C0 C0D0 D0D1 D1E1"/>
    </vehicle>
    <vehicle id="212" depart="127.20">
        <route edges="C2C1 C1B1 B1C1"/>
    </vehicle>
    <vehicle id="213" depart="127.80">
        <route edges="D1C1 C1C0 C0B0 B0A0 A0A1"/>
    </vehicle>
    <vehicle id="214" depart="128.40">
        <route edges="D3C3 C3D3 D3D2"/>
    </vehicle>
    <vehicle id="215" depart="129.00">
        <route edges="A3A2 A2B2 B2C2 C2C1 C1B1"/>
    </vehicle>
    <vehicle id="216" depart="129.60">
        <route edges="B0B1 B1B2 B2B3 B3C3 C3D3 D3E3 E3E2"/>
    </vehicle>
    <vehicle id="217" depart="130.20">
        <route edges="C2D2 D2D1 D1C1 C1B1 B1A1 A1B1"/>
    </vehicle>
    <vehicle id="218" depart="130.80">
        <route edges="B1C1 C1D1 D1E1 E1E0 E0D0"/>
    </vehicle>
    <vehicle id="219" depart="131.40">
        <route edges="C1C2 C2D2 D2D3 D3D4 D4C4"/>
    </vehicle>
    <vehicle id="220" depart="132.00">
        <route edges="D1D0 D0D1 D1D2 D2D3 D3D4 D4E4 E4E3"/>
    </vehicle>
    <vehicle id="221" depart="132.60">
        <route edges="C4C3 C3D3 D3E3 E3E2"/>
    </vehicle>
    <vehicle id="222" depart="133.20">
        <route edges="E1E2 E2D2 D2D1 D1D0 D0C0"/>
    </vehicle>
    <vehicle id="223" depart="133.80">
        <route edges="D2D1 D1C1 C1C2 C2C3"/>
    </vehicle>
    <vehicle id="224" depart="134.40">
        <route edges="D4E4 E4E3 E3D3 D3C3 C3C2"/>
    </vehicle>
    <vehicle id="225" depart="135.00">
        <route edges="E1E2 E2D2 D2E2"/>
    </vehicle>
    <vehicle id="226" depart="135.60">
        <route edges="C1D1 D1D2 D2C2 C2B2 B2A2"/>
    </vehicle>
    <vehicle id="227" depart="136.20">
        <route edges="B1C1 C1C0 C0D0 D0E0"/>
    </vehicle>
    <vehicle id="228" depart="136.80">
        <route edges="D3D2 D2C2 C2D2"/>
    </vehicle>
    <vehicle id="229" depart="137.40">
        <route edges="D0D1 D1D2 D2C2 C2B2 B2B1"/>
    </vehicle>
    <vehicle id="230" depart="138.00">
        <route edges="A2A3 A3B3 B3B2 B2B3"/>
    </vehicle>
    <vehicle id="231" depart="138.60">
        <route edges="B2B1 B1A1 A1A2 A2A3 A3B3 B3B2"/>
    </vehicle>
    <vehicle id="232" depart="139.20">
        <route edges="C3C2 C2B2 B2B3 B3B4 B4A4 A4A3"/>
    </vehicle>
    <vehicle id="233" depart="139.80">
        <route edges="B1B2 B2C2 C2D2 D2D1 D1E1"/>
    </vehicle>
    <vehicle id="234" depart="140.40">
        <route edges="D2C2 C2B2 B2A2 A2A1"/>
    </vehicle>
    <vehicle id="235" depart="141.00">
        <route edges="C0C1 C1C2 C2C3 C3C2"/>
    </vehicle>
    <vehicle id="236" depart="141.60">
        <route edges="C0D0 D0D1 D1C1 C1B1 B1A1"/>
    </vehicle>
    <vehicle id="237" depart="142.20">
        <route edges="C0D0 D0E0 E0E1 E1E2 E2D2"/>
    </vehicle>
    <vehicle id="238" depart="142.80">
        <route edges="C4B4 B4B3 B3B2 B2B1 B1C1 C1D1 D1E1"/>
    </vehicle>
    <vehicle id="239" depart="143.40">
        <route edges="E0E1 E1E2 E2E3 E3D3 D3D2"/>
    </vehicle>
    <vehicle id="240" depart="144.00">
        <route edges="B4C4 C4C3 C3C2 C2C1 C1C0 C0B0 B0A0 A0A1"/>
    </vehicle>
    <vehicle id="241" depart="144.60">
        <route edges="B4A4 A4A3 A3B3 B3C3 C3D3 D3C3"/>
    </vehicle>
    <vehicle id="242" depart="145.20">
        <route edges="E0E1 E1E2 E2E3 E3E2"/>
    </vehicle>
    <vehicle id="243" depart="145.80">
        <route edges="C0D0 D0D1 D1D2 D2E2"/>
    </vehicle>
    <vehicle id="244" depart="146.40">
        <route edges="C3C2 C2C3 C3C4 C4D4"/>
    </vehicle>
    <vehicle id="245" depart="147.00">
        <route edges="B1B0"/>
    </vehicle>
    <vehicle id="246" depart="147.60">
        <route edges="C1B1 B1A1 A1A0"/>
    </vehicle>
    <vehicle id="247" depart="148.20">
        <route edges="B3B4 B4C4 C4C3 C3C2 C2C1 C1D1 D1D2"/>
    </vehicle>
    <vehicle id="248" depart="148.80">
        <route edges="C0C1 C1B1 B1B0 B0A0"/>
    </vehicle>
    <vehicle id="249" depart="149.40">
        <route edges="C1D1 D1C1 C1B1 B1A1 A1A2 A2A3 A3B3"/>
    </vehicle>
    <vehicle id="250" depart="150.00">
        <route edges="D0C0 C0B0 B0B1 B1A1 A1A0"/>
    </vehicle>
    <vehicle id="251" depart="150.60">
        <route edges="C0B0 B0B1 B1B2 B2B3 B3C3 C3D3"/>
    </vehicle>
    <vehicle id="252" depart="151.20">
        <route edges="A1A0 A0B0 B0C0 C0D0 D0E0"/>
    </vehicle>
    <vehicle id="253" depart="151.80">
        <route edges="A3B3 B3B2 B2B1 B1C1 C1C2"/>
    </vehicle>
    <vehicle id="254" depart="152.40">
        <route edges="A1B1 B1B2 B2B3 B3B4 B4C4"/>
    </vehicle>
    <vehicle id="255" depart="153.00">
        <route edges="B1A1 A1A2 A2A3 A3B3 B3B4"/>
    </vehicle>
    <vehicle id="256" depart="153.60">
        <route edges="D3C3 C3B3 B3B4 B4C4"/>
    </vehicle>
    <vehicle id="257" depart="154.20">
        <route edges="D3C3 C3C4 C4D4 D4E4"/>
    </vehicle>
    <vehicle id="258" depart="154.80">
        <route edges="B2A2 A2A3"/>
    </vehicle>
    <vehicle id="259" depart="155.40">
        <route edges="A0B0 B0B1 B1B2 B2B3 B3C3 C3C2"/>
    </vehicle>
    <vehicle id="260" depart="156.00">
        <route edges="E4E3 E3D3 D3C3 C3B3 B3C3"/>
    </vehicle>
    <vehicle id="261" depart="156.60">
        <route edges="D1C1 C1C2 C2C3 C3D3 D3D4"/>
    </vehicle>
    <vehicle id="262" depart="157.20">
        <route edges="D1C1 C1C2 C2C3 C3D3 D3C3"/>
    </vehicle>
    <vehicle id="263" depart="157.80">
        <route edges="E3D3 D3C3 C3B3 B3B2 B2B1 B1B0 B0C0"/>
    </vehicle>
    <vehicle id="264" depart="158.40">
        <route edges="A0B0 B0B1 B1B2 B2B3 B3A3 A3A4 A4B4"/>
    </vehicle>
    <vehicle id="265" depart="159.00">
        <route edges="A3B3 B3C3 C3D3 D3D2 D2D1 D1D0"/>
    </vehicle>
    <vehicle id="266" depart="159.60">
        <route edges="C3D3 D3D2 D2D1 D1C1 C1B1 B1B0"/>
    </vehicle>
    <vehicle id="267" depart="160.20">
        <route edges="D1E1 E1E2 E2E3 E3D3 D3D2"/>
    </vehicle>
    <vehicle id="268" depart="160.80">
        <route edges="B0A0 A0A1 A1A2 A2A3 A3A4 A4B4 B4C4 C4D4"/>
    </vehicle>
    <vehicle id="269" depart="161.40">
        <route edges="D2E2 E2D2 D2C2 C2B2 B2A2 A2A3 A3A4"/>
    </vehicle>
    <vehicle id="270" depart="162.00">
        <route edges="D4D3 D3E3 E3E4"/>
    </vehicle>
    <vehicle id="271" depart="162.60">
        <route edges="A3A2 A2A1 A1A0"/>
    </vehicle>
    <vehicle id="272" depart="163.20">
        <route edges="B3A3 A3A2 A2A1 A1B1 B1C1 C1D1 D1D2"/>
    </vehicle>
    <vehicle id="273" depart="163.80">
        <route edges="E3E2 E2E1 E1E0 E0D0 D0C0 C0B0"/>
    </vehicle>
    <vehicle id="274" depart="164.40">
        <route edges="D2D1 D1C1 C1B1 B1A1 A1A2 A2A3"/>
    </vehicle>
    <vehicle id="275" depart="165.00">
        <route edges="D1E1 E1E0 E0D0 D0D1"/>
    </vehicle>
    <vehicle id="276" depart="165.60">
        <route edges="A3A2 A2B2 B2B3 B3C3 C3D3 D3D2"/>
    </vehicle>
    <vehicle id="277" depart="166.20">
        <route edges="E0E1 E1E2 E2E3 E3D3 D3C3 C3C4 C4D4"/>
    </vehicle>