<configuration>
    <input>
        <net-file value="network_3x3.net.xml"/>
        <route-files value="routes_3x3.rou.xml"/>
    </input>
    <time>
        <begin value="0"/>
        <end value="3600"/>
    </time>
</configuration>
